LTspice 24.0.12 for Windows
Circuit: * C:\Users\kotes\OneDrive\Documents\analog lab\course_project\Draft1.asc
Start Time: Fri Nov  8 15:25:30 2024
solver = Normal
Maximum thread count: 8
tnom = 27
temp = 27
method = modified trap
Direct Newton iteration for .op point succeeded.
Total elapsed time: 0.388 seconds.

